  
       XFOIL         Version 6.99
  
 Calculated polar for: NACA 0334                                       
  
 1 1 Reynolds number fixed          Mach number fixed         
  
 xtrf =   1.000 (top)        1.000 (bottom)  
 Mach =   0.000     Re =     0.100 e 6     Ncrit =   9.000
  
   alpha    CL        CD       CDp       CM     Top_Xtr  Bot_Xtr
  ------ -------- --------- --------- -------- -------- --------
  -4.000   0.1337   0.05385   0.04578  -0.0735   0.6939   0.4665
  -3.000   0.3091   0.05901   0.05090  -0.0753   0.6536   0.4737
  -2.000   0.1460   0.04414   0.03587  -0.0536   0.6312   0.5213
  -1.000  -0.0050   0.03943   0.03098  -0.0168   0.6073   0.5542
   0.000  -0.0000   0.03904   0.03056   0.0000   0.5804   0.5804
   1.000   0.0050   0.03943   0.03097   0.0168   0.5542   0.6073
   2.000  -0.1456   0.04413   0.03585   0.0535   0.5213   0.6312
